spice


V1 n1 0 pulse iv=0 pv=1m rise=1m delay=1n width=4m period=8m fall=1m

.print tran dis(n*) v(nodes)
.tran 0 20m 5m basic trace=a

.stat notime
.end
