spice
* pulse param sanity check

.param vdd 1.7
.options numdgt=5
.param stress=1
.param pp=0
.param pw=.2
V1 nin 0 pulse iv=0 pv=stress width=pw delay=0 period=pp
.print tran v(nodes) control(0) hidden(0) next(V1) event(V1) order(V1)

* this should make a difference
.param pp=.5

.tran 0 1 .05 trace=a
.end
