spice
v1 1 0 pulse(0 -1 5p 1p) DC 0 AC 1
v2 2 0 pulse(0 -1 5p 1p)
.list
.print tran v(nodes) control(0)
.tran 1p 50p 0 trace=i

.end
