load d_gpolyk_wrap.so
verilog

G_poly #(.nports(1),.c(0,1,0))     id(0,i,c1,0);
G_poly #(.nports(1),.c(0,0,1))     square(0,s,c1,0);
g_poly_k #(.nports(2),.c(0,0,0,0,1)) mul(1,0,c1,0,c2,0);
g_poly_k #(.nports(2),.c(0,1,0,0,0)) p1(1,0,c1,0,c2,0);
g_poly_k #(.nports(2),.c(0,0,1,0,0)) Gp2(1,0,c1,0,c2,0);
g_poly_k #(.nports(2),.c(0,0,1,0,0)) p3(.p(1),.n(0),.cp0(c1),.cn0(0),.cp1(c2),.cn1(0));

list
spice
.echo spice netlist
.list
R1 0 s 1
Ri 0 i 1
Vc1 c1 0 1
Vc2 c2 0 1

Vbias 1 0 1
.print dc v(vc1) v(vc2) i(mul) i(p1) i(Gp2) y(p1) v(s) v(i)
.dc Vc1 0 2 1 Vc2 0 2 1 trace=n

.end
