// n type inv amp w/hci
spice

.options TEMP=25
.options numdgt 10
.options nottcorr

*.include inv_amp_p.mod
.param vdd=2.7


.param cmosn_hci=1e-3
.param cmosp_hci=0
.param cmosn_bti=none
.param cmosp_bti=none

.MODEL cmosp PMOS (
+ LEVEL   = 49
+ ALPHA0 = 6.0E-08 BETA0 = 12
+ H0 = cmosp_hci
+ bti_model=cmosp_bti
+ )

.MODEL cmosn NMOS (
+ LEVEL   = 49
+ ALPHA0 = 6.27411E-08 BETA0 = 11
+ vth0=2
+ H0 = cmosn_hci
+ bti_model=cmosn_bti
+ )

R1 nout ndd 10k
MN1 nout nin 0 0 cmosn l=1.5e-7 w=4.5e-4

R1 nout2 0 9k
c1 nout 0 10p
VDD ndd 0 vdd

.param risefall=.1u

Rin np nin 1k
vin np 0 sin amplitude={vdd/2} offset={vdd/2}

*.print tran dvth(MN1) vth(MN1) hci(MN1.hci) dhci(MN1.hci) dvth(MN1.hci)
.print tw dvth(MN1) vth(MN1) hci(MN1.hci) dhci(MN1.hci)  dvth(MN1.hci) ttord(MN1.hci)

.ttr 0 100u 20u 1u * 2 new trace=i
.options ttsteporder 1
.ttr 0 100u 20u 1u * 2 new trace=i
.options ttstepgrow 0
.ttr 0 100u 20u 1u * 2 new trace=i
.status notime
.end
