.model TESTR r ( rsh=1 narrow=NA( 0.) defw=1 tc1=1m tc2=0 tnom=NA( 27.))
.model RP r ( rsh=1 narrow=NA( 0.) defw=1 tc1=1m tc2=0 tnom=NA( 27.))
tran at 1342 
#Time       r(Xfoo.R1) r(Xfoo.R2) r(R1)      temp(R1)   temp(0)    hidden(0) 
 0.         6.945      6.945      4.63       1.342K     1.342K     0.        
 0.1        6.945      6.945      4.63       1.342K     1.342K     1.        
 0.2        6.945      6.945      4.63       1.342K     1.342K     0.        
 0.3        6.945      6.945      4.63       1.342K     1.342K     0.        
 0.4        6.945      6.945      4.63       1.342K     1.342K     0.        
 0.5        6.945      6.945      4.63       1.342K     1.342K     0.        
 0.6        6.945      6.945      4.63       1.342K     1.342K     0.        
 0.7        6.945      6.945      4.63       1.342K     1.342K     0.        
 0.8        6.945      6.945      4.63       1.342K     1.342K     0.        
 0.9        6.945      6.945      4.63       1.342K     1.342K     0.        
 1.         6.945      6.945      4.63       1.342K     1.342K     0.        
tran w/o temp 
#Time       r(Xfoo.R1) r(Xfoo.R2) r(R1)      temp(R1)   temp(0)    hidden(0) 
 1.         3.03       3.03       2.02       37.        37.        0.        
 1.001      3.03       3.03       2.02       37.        37.        0.        
 1.1        3.03       3.03       2.02       37.        37.        0.        
 1.2        3.03       3.03       2.02       37.        37.        0.        
 1.3        3.03       3.03       2.02       37.        37.        0.        
 1.4        3.03       3.03       2.02       37.        37.        0.        
 1.5        3.03       3.03       2.02       37.        37.        0.        
 1.6        3.03       3.03       2.02       37.        37.        0.        
 1.7        3.03       3.03       2.02       37.        37.        0.        
 1.8        3.03       3.03       2.02       37.        37.        0.        
 1.9        3.03       3.03       2.02       37.        37.        0.        
 2.         3.03       3.03       2.02       37.        37.        0.        
#           r(Xfoo.R1) r(Xfoo.R2) r(R1)      temp(R1)   temp(0)   
 1.         3.03       3.03       2.02       37.        37.       
 2.         3.03       3.03       2.02       37.        37.       
#           r(Xfoo.R1) r(Xfoo.R2) r(R1)      temp(R1)   temp(0)   
 1.         3.03       3.03       2.02       37.        37.       
 2.         3.03       3.03       2.02       37.        37.       
dc @123 
#           r(Xfoo.R1) r(Xfoo.R2) r(R1)      temp(R1)   temp(0)   
 1.         3.288      3.288      2.192      123.       123.      
 2.         3.288      3.288      2.192      123.       123.      
Gnucap   System status
iterations: op=0, dc=8, tran=36, fourier=0, total=121
transient timesteps: accepted=24, rejected=0, total=24
nodes: user=1, subckt=1, model=0, total=2
dctran density=100.0%, ac density=100.0%
