spice

.MODEL TESTR RES (TC1=1m TC2=0 DEFW=1 RSH=1)
.MODEL RP RES (TC1=1m TC2=0 DEFW=1 RSH=1)

.options temperature=37
.options initsc 1

.list

.subckt foo 1 3
R1 1 2 TESTR(w=2, l=6)
R2 3 2 RP L=3
.ends

V1 1 0 3
Xfoo 1 0 foo 
R1 1 0 TESTR(w=2, l=4)

.print dc r(Xfoo.R*) r(R1) temp(R1) temp(0)
.print tran r(Xfoo.R*) r(R1) temp(R1) temp(0) hidden(0)
.echo tran at 1342
.tran 0 1 .1 trace=n te=1342
.echo tran w/o temp
.tran 2 trace=a
.dc V1 1 2 1
.dc V1 1 2 1
.echo dc @123
.dc V1 1 2 1 te=123
.status notime
.end
