spice
* somethings wrong...

.subckt pch d g s b
.parameter l=0

Mpch (d g s b) pch l=l

.model pch pmos()
.ends pch


X1 1 2 3 4 pch l=1

.print tran v(nodes)
.tran 0 1 .1 trace=n

.end

