V1 ( 1 0 )  DC  1.
S0 ( n0 1 nctl 0 )  myswitch  ic=0
R0 ( n0 0 )  1.K
S1 ( n1 1 nctl 0 )  myswitch  ic=1
R1 ( n1 0 )  1.K
S2 ( n2 1 nctl 0 )  myswitch 
R2 ( n2 0 )  1.K
Vctl ( nctl 0 )  DC  0.
.model myswitch sw ( vt=0. vh=2. von=NA( 2.) voff=NA(-2.) ron=1e-12 roff=1.E+12 tnom=NA( 27.))
#           v(n0)      v(n1)      v(n2)      v(nctl)    s0(S0)     s0(S1)     s0(S2)    
 0.         1.n        1.         1.n        0.         2.         1.         0.        
 1.         1.n        1.         1.n        1.         2.         1.         0.        
 2.         1.n        1.         1.n        2.         2.         1.         0.        
 3.         1.         1.         1.         3.         1.         1.         1.        
 4.         1.         1.         1.         4.         1.         1.         1.        
 5.         1.         1.         1.         5.         1.         1.         1.        
 5.         1.         1.         1.         5.         1.         1.         1.        
 4.         1.         1.         1.         4.         1.         1.         1.        
 3.         1.         1.         1.         3.         1.         1.         1.        
 2.         1.         1.         1.         2.         1.         1.         1.        
 1.         1.         1.         1.         1.         1.         1.         1.        
 0.         1.         1.         1.         0.         1.         1.         1.        
#           v(n0)      v(n1)      v(n2)      v(nctl)    s0(S0)     s0(S1)     s0(S2)    
 0.         1.         1.         1.         0.         1.         1.         1.        
 1.         1.         1.         1.         1.         1.         1.         1.        
 2.         1.         1.         1.         2.         1.         1.         1.        
 3.         1.         1.         1.         3.         1.         1.         1.        
 4.         1.         1.         1.         4.         1.         1.         1.        
 5.         1.         1.         1.         5.         1.         1.         1.        
 5.         1.         1.         1.         5.         1.         1.         1.        
 4.         1.         1.         1.         4.         1.         1.         1.        
 3.         1.         1.         1.         3.         1.         1.         1.        
 2.         1.         1.         1.         2.         1.         1.         1.        
 1.         1.         1.         1.         1.         1.         1.         1.        
 0.         1.         1.         1.         0.         1.         1.         1.        
#           v(n0)      v(n1)      v(n2)      v(nctl)    s0(S0)     s0(S1)     s0(S2)    
 0.         1.n        1.         1.n        0.         2.         1.         0.        
 1.         1.n        1.         1.n        1.         2.         1.         0.        
 2.         1.n        1.         1.n        2.         2.         1.         0.        
 3.         1.n        1.         1.         3.         2.         1.         1.        
 4.         1.n        1.         1.         4.         2.         1.         1.        
 5.         1.n        1.         1.         5.         2.         1.         1.        
#           v(n0)      v(n1)      v(n2)      v(nctl)    s0(S0)     s0(S1)     s0(S2)    
 5.         1.         1.         1.         5.         1.         1.         1.        
 4.         1.         1.         1.         4.         1.         1.         1.        
 3.         1.         1.         1.         3.         1.         1.         1.        
 2.         1.         1.         1.         2.         1.         1.         1.        
 1.         1.         1.         1.         1.         1.         1.         1.        
 0.         1.         1.         1.         0.         1.         1.         1.        
-1.         1.         1.         1.        -1.         1.         1.         1.        
-2.         1.         1.         1.        -2.         1.         1.         1.        
-3.         0.         0.         0.        -3.         2.         2.         2.        
-4.         0.         0.         0.        -4.         2.         2.         2.        
-5.         0.         0.         0.        -5.         2.         2.         2.        
