spice

V1 1 0 1
.print dc v(1)

.dc V1 0 1 0.1
.dc V1 1 0 -0.1

.dc V1 1 10 * 1.1
.dc V1 10 1 * 0.9

.end
