 off= 5. volts= 1.
.subckt compon ( 1 2 )
V2 ( 1 3 ) volts+off
V1 ( 1 2 ) volts
.ends compon
ding0 ( 0 1 )  compon  arg=3
ding1 ( 0 2 )  compon  off=1
#           v(ding0.V2) v(ding0.V1) v(ding1.V2) v(ding1.V1)
 0.         0.         0.         0.         0.        
-1.         6.         1.         2.         1.        
 0.         6.         1.         2.         1.        
