spice

c1 1 0 1n ic=0
r1 1 2 1k
v1 2 0 1

.list

.print dc v(1) v(c1) ic(c1)
.dc uic

.print tran method(c1) ord(c1) v(1) control(0)
.tran 0 1u 1u trace=i cont
.end
