spice


r1 n1 n2 1k
c1 n2 0 0.1
v1 n1 0 pulse iv=0 pv=.1 rise=.1 delay=100m

.print tran v(nodes) dis(n1) method(c1) hidden(0)

.options initsc 1
.tran 0 1 1 trace=a
.stat notime

.options method traponly
.options initsc -1
.tran 0 1 1 trace=a
.stat notime
.end
