load c_debug.so
 spice
* test subckt node probes

.subckt half a1 a2
R2 a1  ni 1
R4 nii ni 1
R3 nii niii 1
R1 a2 niii 1
.ends

V1 ne1 0 1
X1 ne1 0 half

X2 ne3 ne4 half
R1 ne4 0   1
V2 ne3 0 2

.model cmosn nmos (level=8 ld=0.265073u tox=418.0e-10 rd=1 rs=0)
m1 3 6 5 8 cmosn w=5u l=5u ad=45p as=45p pd=28u ps=28u nrd=1.8 nrs=1.8

.nodelist

.echo forward
.options order=f
.mstat
.echo sinkr
.options order=sinkr
.mstat
.echo sink forward
.options order=sinkf
.mstat
.echo reverse
.options order=r
.mstat
.echo tree
.options order=tree
.mstat
.echo comp
.options order=comp
.mstat

.end
